
 OpenBabel05122512413D

 82 88  0  0  0  0  0  0  0  0999 V2000
   -0.1203   -4.7314    1.1962 C   0  0  0  0  0  0  0  0  0  0  0  0
   -0.1772   -4.1156   -0.2059 C   0  0  0  0  0  0  0  0  0  0  0  0
   -0.7772   -2.7850   -0.1096 N   0  0  0  0  0  0  0  0  0  0  0  0
   -2.0992   -2.5955   -0.2204 C   0  0  0  0  0  0  0  0  0  0  0  0
   -2.6571   -1.3342   -0.1279 C   0  0  0  0  0  0  0  0  0  0  0  0
   -4.1274   -1.1577   -0.2552 C   0  0  0  0  0  0  0  0  0  0  0  0
   -4.8220   -2.2164   -0.4510 O   0  0  0  0  0  0  0  0  0  0  0  0
   -4.7893    0.0560   -0.1779 N   0  0  0  0  0  0  0  0  0  0  0  0
   -6.1655    0.3077   -0.2869 C   0  0  0  0  0  0  0  0  0  0  0  0
   -6.6731    1.6171   -0.1824 C   0  0  0  0  0  0  0  0  0  0  0  0
   -5.9468    2.8527    0.0380 C   0  0  0  0  0  0  0  0  0  0  0  0
   -6.6344    4.0582    0.1118 C   0  0  0  0  0  0  0  0  0  0  0  0
   -5.9591    5.2495    0.3217 C   0  0  0  0  0  0  0  0  0  0  0  0
   -4.5884    5.2521    0.4606 C   0  0  0  0  0  0  0  0  0  0  0  0
   -3.9359    4.0396    0.3824 C   0  0  0  0  0  0  0  0  0  0  0  0
   -4.6251    2.8975    0.1770 N   0  0  0  0  0  0  0  0  0  0  0  0
   -7.9999    1.4864   -0.3321 N   0  0  0  0  0  0  0  0  0  0  0  0
   -8.3164    0.2026   -0.5168 C   0  0  0  0  0  0  0  0  0  0  0  0
   -9.5299   -0.4121   -0.7126 C   0  0  0  0  0  0  0  0  0  0  0  0
   -9.6812   -1.7677   -0.8892 C   0  0  0  0  0  0  0  0  0  0  0  0
   -8.4961   -2.4992   -0.8564 C   0  0  0  0  0  0  0  0  0  0  0  0
   -8.6699   -4.3867   -1.0984 Br  0  0  0  0  0  0  0  0  0  0  0  0
   -7.2951   -1.8832   -0.6617 C   0  0  0  0  0  0  0  0  0  0  0  0
   -7.2070   -0.5536   -0.4946 N   0  0  0  0  0  0  0  0  0  0  0  0
   -1.8581   -0.2487    0.0806 C   0  0  0  0  0  0  0  0  0  0  0  0
   -2.2847    0.9169    0.1750 O   0  0  0  0  0  0  0  0  0  0  0  0
   -0.4759   -0.4617    0.1947 C   0  0  0  0  0  0  0  0  0  0  0  0
    0.3963    0.5836    0.4057 C   0  0  0  0  0  0  0  0  0  0  0  0
    1.7511    0.3463    0.5141 C   0  0  0  0  0  0  0  0  0  0  0  0
    2.6422    1.3705    0.7246 F   0  0  0  0  0  0  0  0  0  0  0  0
    2.2862   -0.9270    0.4179 C   0  0  0  0  0  0  0  0  0  0  0  0
    3.6902   -1.1257    0.5359 N   0  0  0  0  0  0  0  0  0  0  0  0
    4.3645   -0.7300    1.7593 C   0  0  0  0  0  0  0  0  0  0  0  0
    5.4744    0.2363    1.3289 C   0  0  0  0  0  0  0  0  0  0  0  0
    6.2639   -0.2953    0.2710 N   0  0  0  0  0  0  0  0  0  0  0  0
    7.6958   -0.3261    0.3927 C   0  0  0  0  0  0  0  0  0  0  0  0
    8.3786   -0.7954   -0.5421 O   0  0  0  0  0  0  0  0  0  0  0  0
    8.3223    0.1853    1.5976 C   0  0  0  0  0  0  0  0  0  0  0  0
    9.7946    0.2899    1.4908 C   0  0  0  0  0  0  0  0  0  0  0  0
   10.1799    1.2345    0.4188 C   0  0  0  0  0  0  0  0  0  0  0  0
   10.4340    0.8788   -0.8618 C   0  0  0  0  0  0  0  0  0  0  0  0
   10.7890    1.7745   -1.8339 C   0  0  0  0  0  0  0  0  0  0  0  0
   10.9039    3.1199   -1.5296 C   0  0  0  0  0  0  0  0  0  0  0  0
   10.6520    3.5294   -0.2264 C   0  0  0  0  0  0  0  0  0  0  0  0
   10.3008    2.6035    0.7119 C   0  0  0  0  0  0  0  0  0  0  0  0
    5.6392   -0.8043   -0.9242 C   0  0  0  0  0  0  0  0  0  0  0  0
    4.5008   -1.7111   -0.5144 C   0  0  0  0  0  0  0  0  0  0  0  0
    1.4060   -1.9676    0.2067 C   0  0  0  0  0  0  0  0  0  0  0  0
    0.0464   -1.7310    0.0977 C   0  0  0  0  0  0  0  0  0  0  0  0
    0.3171   -5.7063    1.1401 H   0  0  0  0  0  0  0  0  0  0  0  0
   -1.1111   -4.8073    1.5929 H   0  0  0  0  0  0  0  0  0  0  0  0
    0.4729   -4.1105    1.8346 H   0  0  0  0  0  0  0  0  0  0  0  0
   -0.7715   -4.7331   -0.8465 H   0  0  0  0  0  0  0  0  0  0  0  0
    0.8099   -4.0419   -0.6121 H   0  0  0  0  0  0  0  0  0  0  0  0
   -2.7142   -3.4091   -0.3782 H   0  0  0  0  0  0  0  0  0  0  0  0
   -4.2204    0.8451   -0.0268 H   0  0  0  0  0  0  0  0  0  0  0  0
   -7.6612    4.0660    0.0089 H   0  0  0  0  0  0  0  0  0  0  0  0
   -6.4838    6.1366    0.3741 H   0  0  0  0  0  0  0  0  0  0  0  0
   -4.0686    6.1297    0.6175 H   0  0  0  0  0  0  0  0  0  0  0  0
   -2.9093    4.0052    0.4820 H   0  0  0  0  0  0  0  0  0  0  0  0
  -10.3767    0.1776   -0.7280 H   0  0  0  0  0  0  0  0  0  0  0  0
  -10.6025   -2.2093   -1.0349 H   0  0  0  0  0  0  0  0  0  0  0  0
   -6.4341   -2.4519   -0.6423 H   0  0  0  0  0  0  0  0  0  0  0  0
    0.0351    1.5472    0.4829 H   0  0  0  0  0  0  0  0  0  0  0  0
    4.7832   -1.5851    2.2476 H   0  0  0  0  0  0  0  0  0  0  0  0
    3.6892   -0.2719    2.4514 H   0  0  0  0  0  0  0  0  0  0  0  0
    6.1082    0.4305    2.1689 H   0  0  0  0  0  0  0  0  0  0  0  0
    5.0120    1.1347    0.9768 H   0  0  0  0  0  0  0  0  0  0  0  0
    8.0861   -0.4716    2.4086 H   0  0  0  0  0  0  0  0  0  0  0  0
    7.9444    1.1736    1.7571 H   0  0  0  0  0  0  0  0  0  0  0  0
   10.1994   -0.6755    1.2693 H   0  0  0  0  0  0  0  0  0  0  0  0
   10.1802    0.6521    2.4209 H   0  0  0  0  0  0  0  0  0  0  0  0
   10.3562   -0.1178   -1.1183 H   0  0  0  0  0  0  0  0  0  0  0  0
   10.9713    1.4463   -2.7952 H   0  0  0  0  0  0  0  0  0  0  0  0
   11.1708    3.8037   -2.2550 H   0  0  0  0  0  0  0  0  0  0  0  0
   10.7299    4.5260    0.0299 H   0  0  0  0  0  0  0  0  0  0  0  0
   10.1164    2.9214    1.6762 H   0  0  0  0  0  0  0  0  0  0  0  0
    6.3532   -1.3567   -1.4987 H   0  0  0  0  0  0  0  0  0  0  0  0
    5.2708    0.0039   -1.5209 H   0  0  0  0  0  0  0  0  0  0  0  0
    4.9061   -2.6367   -0.1625 H   0  0  0  0  0  0  0  0  0  0  0  0
    3.8750   -1.8623   -1.3690 H   0  0  0  0  0  0  0  0  0  0  0  0
    1.7645   -2.9322    0.1292 H   0  0  0  0  0  0  0  0  0  0  0  0
  1  2  1  0  0  0  0
  1 50  1  0  0  0  0
  1 51  1  0  0  0  0
  1 52  1  0  0  0  0
  2  3  1  0  0  0  0
  2 53  1  0  0  0  0
  2 54  1  0  0  0  0
  3  4  1  0  0  0  0
  4  5  2  0  0  0  0
  4 55  1  0  0  0  0
  5  6  1  0  0  0  0
  5 25  1  0  0  0  0
  6  7  2  0  0  0  0
  6  8  1  0  0  0  0
  8  9  1  0  0  0  0
  8 56  1  0  0  0  0
  9 10  2  0  0  0  0
 10 11  1  0  0  0  0
 10 17  1  0  0  0  0
 11 12  2  0  0  0  0
 12 13  1  0  0  0  0
 12 57  1  0  0  0  0
 13 14  2  0  0  0  0
 13 58  1  0  0  0  0
 14 15  1  0  0  0  0
 14 59  1  0  0  0  0
 15 16  2  0  0  0  0
 15 60  1  0  0  0  0
 16 11  1  0  0  0  0
 17 18  2  0  0  0  0
 18 19  1  0  0  0  0
 19 20  2  0  0  0  0
 19 61  1  0  0  0  0
 20 21  1  0  0  0  0
 20 62  1  0  0  0  0
 21 22  1  0  0  0  0
 21 23  2  0  0  0  0
 23 24  1  0  0  0  0
 23 63  1  0  0  0  0
 24  9  1  0  0  0  0
 24 18  1  0  0  0  0
 25 26  2  0  0  0  0
 25 27  1  0  0  0  0
 27 28  2  0  0  0  0
 28 29  1  0  0  0  0
 28 64  1  0  0  0  0
 29 30  1  0  0  0  0
 29 31  2  0  0  0  0
 31 32  1  0  0  0  0
 31 48  1  0  0  0  0
 32 33  1  0  0  0  0
 33 34  1  0  0  0  0
 33 65  1  0  0  0  0
 33 66  1  0  0  0  0
 34 35  1  0  0  0  0
 34 67  1  0  0  0  0
 34 68  1  0  0  0  0
 35 36  1  0  0  0  0
 35 46  1  0  0  0  0
 36 37  2  0  0  0  0
 36 38  1  0  0  0  0
 38 39  1  0  0  0  0
 38 69  1  0  0  0  0
 38 70  1  0  0  0  0
 39 40  1  0  0  0  0
 39 71  1  0  0  0  0
 39 72  1  0  0  0  0
 40 41  2  0  0  0  0
 41 42  1  0  0  0  0
 41 73  1  0  0  0  0
 42 43  2  0  0  0  0
 42 74  1  0  0  0  0
 43 44  1  0  0  0  0
 43 75  1  0  0  0  0
 44 45  2  0  0  0  0
 44 76  1  0  0  0  0
 45 40  1  0  0  0  0
 45 77  1  0  0  0  0
 46 47  1  0  0  0  0
 46 78  1  0  0  0  0
 46 79  1  0  0  0  0
 47 32  1  0  0  0  0
 47 80  1  0  0  0  0
 47 81  1  0  0  0  0
 48 49  2  0  0  0  0
 48 82  1  0  0  0  0
 49  3  1  0  0  0  0
 49 27  1  0  0  0  0
M  END
